# CHD package for  MODFLOW-2005, generated by Flopy.
     13376
     13376         0 # stress period 1
         1       275        95          1000.0          1000.0
         1       276        95          1000.0          1000.0
         1       277        95          1000.0          1000.0
         1       278        95          1000.0          1000.0
         1       279        95          1000.0          1000.0
         1       280        95          1000.0          1000.0
         1       281        95          1000.0          1000.0
         1       267        96          1000.0          1000.0
         1       268        96          1000.0          1000.0
         1       269        96          1000.0          1000.0
         1       270        96          1000.0          1000.0
         1       271        96          1000.0          1000.0
         1       272        96          1000.0          1000.0
         1       273        96          1000.0          1000.0
         1       274        96          1000.0          1000.0
         1       275        96          1000.0          1000.0
         1       276        96          1000.0          1000.0
         1       277        96          1000.0          1000.0
         1       278        96          1000.0          1000.0
         1       279        96          1000.0          1000.0
         1       280        96          1000.0          1000.0
         1       281        96          1000.0          1000.0
         1       282        96          1000.0          1000.0
         1       283        96          1000.0          1000.0
         1       284        96          1000.0          1000.0
         1       285        96          1000.0          1000.0
         1       260        97          1000.0          1000.0
         1       261        97          1000.0          1000.0
         1       262        97          1000.0          1000.0
         1       263        97          1000.0          1000.0
         1       264        97          1000.0          1000.0
         1       265        97          1000.0          1000.0
         1       266        97          1000.0          1000.0
         1       267        97          1000.0          1000.0
         1       268        97          1000.0          1000.0
         1       269        97          1000.0          1000.0
         1       270        97          1000.0          1000.0
         1       271        97          1000.0          1000.0
         1       272        97          1000.0          1000.0
         1       273        97          1000.0          1000.0
         1       274        97          1000.0          1000.0
         1       275        97          1000.0          1000.0
         1       276        97          1000.0          1000.0
         1       277        97          1000.0          1000.0
         1       278        97          1000.0          1000.0
         1       279        97          1000.0          1000.0
         1       280        97          1000.0          1000.0
         1       281        97          1000.0          1000.0
         1       282        97          1000.0          1000.0
         1       283        97          1000.0          1000.0
         1       284        97          1000.0          1000.0
         1       285        97          1000.0          1000.0
         1       286        97          1000.0          1000.0
         1       287        97          1000.0          1000.0
         1       288        97          1000.0          1000.0
         1       289        97          1000.0          1000.0
         1       253        98          1000.0          1000.0
         1       254        98          1000.0          1000.0
         1       255        98          1000.0          1000.0
         1       256        98          1000.0          1000.0
         1       257        98          1000.0          1000.0
         1       258        98          1000.0          1000.0
         1       259        98          1000.0          1000.0
         1       260        98          1000.0          1000.0
         1       261        98          1000.0          1000.0
         1       262        98          1000.0          1000.0
         1       263        98          1000.0          1000.0
         1       264        98          1000.0          1000.0
         1       265        98          1000.0          1000.0
         1       266        98          1000.0          1000.0
         1       267        98          1000.0          1000.0
         1       268        98          1000.0          1000.0
         1       269        98          1000.0          1000.0
         1       270        98          1000.0          1000.0
         1       271        98          1000.0          1000.0
         1       272        98          1000.0          1000.0
         1       273        98          1000.0          1000.0
         1       274        98          1000.0          1000.0
         1       275        98          1000.0          1000.0
         1       276        98          1000.0          1000.0
         1       277        98          1000.0          1000.0
         1       278        98          1000.0          1000.0
         1       279        98          1000.0          1000.0
         1       280        98          1000.0          1000.0
         1       281        98          1000.0          1000.0
         1       282        98          1000.0          1000.0
         1       283        98          1000.0          1000.0
         1       284        98          1000.0          1000.0
         1       285        98          1000.0          1000.0
         1       286        98          1000.0          1000.0
         1       287        98          1000.0          1000.0
         1       288        98          1000.0          1000.0
         1       289        98          1000.0          1000.0
         1       290        98          1000.0          1000.0
         1       291        98          1000.0          1000.0
         1       292        98          1000.0          1000.0
         1       293        98          1000.0          1000.0
         1       247        99          1000.0          1000.0
         1       248        99          1000.0          1000.0
         1       249        99          1000.0          1000.0
         1       250        99          1000.0          1000.0
         1       251        99          1000.0          1000.0
         1       252        99          1000.0          1000.0
         1       253        99          1000.0          1000.0
         1       254        99          1000.0          1000.0
         1       255        99          1000.0          1000.0
         1       256        99          1000.0          1000.0
         1       257        99          1000.0          1000.0
         1       258        99          1000.0          1000.0
         1       259        99          1000.0          1000.0
         1       260        99          1000.0          1000.0
         1       261        99          1000.0          1000.0
         1       262        99          1000.0          1000.0
         1       263        99          1000.0          1000.0
         1       264        99          1000.0          1000.0
         1       265        99          1000.0          1000.0
         1       266        99          1000.0          1000.0
         1       267        99          1000.0          1000.0
         1       268        99          1000.0          1000.0
         1       269        99          1000.0          1000.0
         1       270        99          1000.0          1000.0
         1       271        99          1000.0          1000.0
         1       272        99          1000.0          1000.0
         1       273        99          1000.0          1000.0
         1       274        99          1000.0          1000.0
         1       275        99          1000.0          1000.0
         1       276        99          1000.0          1000.0
         1       277        99          1000.0          1000.0
         1       278        99          1000.0          1000.0
         1       279        99          1000.0          1000.0
         1       280        99          1000.0          1000.0
         1       281        99          1000.0          1000.0
         1       282        99          1000.0          1000.0
         1       283        99          1000.0          1000.0
         1       284        99          1000.0          1000.0
         1       285        99          1000.0          1000.0
         1       286        99          1000.0          1000.0
         1       287        99          1000.0          1000.0
         1       288        99          1000.0          1000.0
         1       289        99          1000.0          1000.0
         1       290        99          1000.0          1000.0
         1       291        99          1000.0          1000.0
         1       292        99          1000.0          1000.0
         1       293        99          1000.0          1000.0
         1       294        99          1000.0          1000.0
         1       295        99          1000.0          1000.0
         1       243       100          1000.0          1000.0
         1       244       100          1000.0          1000.0
         1       245       100          1000.0          1000.0
         1       246       100          1000.0          1000.0
         1       247       100          1000.0          1000.0
         1       248       100          1000.0          1000.0
         1       249       100          1000.0          1000.0
         1       250       100          1000.0          1000.0
         1       251       100          1000.0          1000.0
         1       252       100          1000.0          1000.0
         1       253       100          1000.0          1000.0
         1       254       100          1000.0          1000.0
         1       255       100          1000.0          1000.0
         1       256       100          1000.0          1000.0
         1       257       100          1000.0          1000.0
         1       258       100          1000.0          1000.0
         1       259       100          1000.0          1000.0
         1       260       100          1000.0          1000.0
         1       261       100          1000.0          1000.0
         1       262       100          1000.0          1000.0
         1       263       100          1000.0          1000.0
         1       264       100          1000.0          1000.0
         1       265       100          1000.0          1000.0
         1       266       100          1000.0          1000.0
         1       267       100          1000.0          1000.0
         1       268       100          1000.0          1000.0
         1       269       100          1000.0          1000.0
         1       270       100          1000.0          1000.0
         1       271       100          1000.0          1000.0
         1       272       100          1000.0          1000.0
         1       273       100          1000.0          1000.0
         1       274       100          1000.0          1000.0
         1       275       100          1000.0          1000.0
         1       276       100          1000.0          1000.0
         1       277       100          1000.0          1000.0
         1       278       100          1000.0          1000.0
         1       279       100          1000.0          1000.0
         1       280       100          1000.0          1000.0
         1       281       100          1000.0          1000.0
         1       282       100          1000.0          1000.0
         1       283       100          1000.0          1000.0
         1       284       100          1000.0          1000.0
         1       285       100          1000.0          1000.0
         1       286       100          1000.0          1000.0
         1       287       100          1000.0          1000.0
         1       288       100          1000.0          1000.0
         1       289       100          1000.0          1000.0
         1       290       100          1000.0          1000.0
         1       291       100          1000.0          1000.0
         1       292       100          1000.0          1000.0
         1       293       100          1000.0          1000.0
         1       294       100          1000.0          1000.0
         1       295       100          1000.0          1000.0
         1       239       101          1000.0          1000.0
         1       240       101          1000.0          1000.0
         1       241       101          1000.0          1000.0
         1       242       101          1000.0          1000.0
         1       243       101          1000.0          1000.0
         1       244       101          1000.0          1000.0
         1       245       101          1000.0          1000.0
         1       246       101          1000.0          1000.0
         1       247       101          1000.0          1000.0
         1       248       101          1000.0          1000.0
         1       249       101          1000.0          1000.0
         1       250       101          1000.0          1000.0
         1       251       101          1000.0          1000.0
         1       252       101          1000.0          1000.0
         1       253       101          1000.0          1000.0
         1       254       101          1000.0          1000.0
         1       255       101          1000.0          1000.0
         1       256       101          1000.0          1000.0
         1       257       101          1000.0          1000.0
         1       258       101          1000.0          1000.0
         1       259       101          1000.0          1000.0
         1       260       101          1000.0          1000.0
         1       261       101          1000.0          1000.0
         1       262       101          1000.0          1000.0
         1       263       101          1000.0          1000.0
         1       264       101          1000.0          1000.0
         1       265       101          1000.0          1000.0
         1       266       101          1000.0          1000.0
         1       267       101          1000.0          1000.0
         1       268       101          1000.0          1000.0
         1       269       101          1000.0          1000.0
         1       270       101          1000.0          1000.0
         1       271       101          1000.0          1000.0
         1       272       101          1000.0          1000.0
         1       273       101          1000.0          1000.0
         1       274       101          1000.0          1000.0
         1       275       101          1000.0          1000.0
         1       276       101          1000.0          1000.0
         1       277       101          1000.0          1000.0
         1       278       101          1000.0          1000.0
         1       279       101          1000.0          1000.0
         1       280       101          1000.0          1000.0
         1       281       101          1000.0          1000.0
         1       282       101          1000.0          1000.0
         1       283       101          1000.0          1000.0
         1       284       101          1000.0          1000.0
         1       285       101          1000.0          1000.0
         1       286       101          1000.0          1000.0
         1       287       101          1000.0          1000.0
         1       288       101          1000.0          1000.0
         1       289       101          1000.0          1000.0
         1       290       101          1000.0          1000.0
         1       291       101          1000.0          1000.0
         1       292       101          1000.0          1000.0
         1       293       101          1000.0          1000.0
         1       294       101          1000.0          1000.0
         1       295       101          1000.0          1000.0
         1       235       102          1000.0          1000.0
         1       236       102          1000.0          1000.0
         1       237       102          1000.0          1000.0
         1       238       102          1000.0          1000.0
         1       239       102          1000.0          1000.0
         1       240       102          1000.0          1000.0
         1       241       102          1000.0          1000.0
         1       242       102          1000.0          1000.0
         1       243       102          1000.0          1000.0
         1       244       102          1000.0          1000.0
         1       245       102          1000.0          1000.0
         1       246       102          1000.0          1000.0
         1       247       102          1000.0          1000.0
         1       248       102          1000.0          1000.0
         1       249       102          1000.0          1000.0
         1       250       102          1000.0          1000.0
         1       251       102          1000.0          1000.0
         1       252       102          1000.0          1000.0
         1       253       102          1000.0          1000.0
         1       254       102          1000.0          1000.0
         1       255       102          1000.0          1000.0
         1       256       102          1000.0          1000.0
         1       257       102          1000.0          1000.0
         1       258       102          1000.0          1000.0
         1       259       102          1000.0          1000.0
         1       260       102          1000.0          1000.0
         1       261       102          1000.0          1000.0
         1       262       102          1000.0          1000.0
         1       263       102          1000.0          1000.0
         1       264       102          1000.0          1000.0
         1       265       102          1000.0          1000.0
         1       266       102          1000.0          1000.0
         1       267       102          1000.0          1000.0
         1       268       102          1000.0          1000.0
         1       269       102          1000.0          1000.0
         1       270       102          1000.0          1000.0
         1       271       102          1000.0          1000.0
         1       272       102          1000.0          1000.0
         1       273       102          1000.0          1000.0
         1       274       102          1000.0          1000.0
         1       275       102          1000.0          1000.0
         1       276       102          1000.0          1000.0
         1       277       102          1000.0          1000.0
         1       278       102          1000.0          1000.0
         1       279       102          1000.0          1000.0
         1       280       102          1000.0          1000.0
         1       281       102          1000.0          1000.0
         1       282       102          1000.0          1000.0
         1       283       102          1000.0          1000.0
         1       284       102          1000.0          1000.0
         1       285       102          1000.0          1000.0
         1       286       102          1000.0          1000.0
         1       287       102          1000.0          1000.0
         1       288       102          1000.0          1000.0
         1       289       102          1000.0          1000.0
         1       290       102          1000.0          1000.0
         1       291       102          1000.0          1000.0
         1       292       102          1000.0          1000.0
         1       293       102          1000.0          1000.0
         1       294       102          1000.0          1000.0
         1       295       102          1000.0          1000.0
         1       230       103          1000.0          1000.0
         1       231       103          1000.0          1000.0
         1       232       103          1000.0          1000.0
         1       233       103          1000.0          1000.0
         1       234       103          1000.0          1000.0
         1       235       103          1000.0          1000.0
         1       236       103          1000.0          1000.0
         1       237       103          1000.0          1000.0
         1       238       103          1000.0          1000.0
         1       239       103          1000.0          1000.0
         1       240       103          1000.0          1000.0
         1       241       103          1000.0          1000.0
         1       242       103          1000.0          1000.0
         1       243       103          1000.0          1000.0
         1       244       103          1000.0          1000.0
         1       245       103          1000.0          1000.0
         1       246       103          1000.0          1000.0
         1       247       103          1000.0          1000.0
         1       248       103          1000.0          1000.0
         1       249       103          1000.0          1000.0
         1       250       103          1000.0          1000.0
         1       251       103          1000.0          1000.0
         1       252       103          1000.0          1000.0
         1       253       103          1000.0          1000.0
         1       254       103          1000.0          1000.0
         1       255       103          1000.0          1000.0
         1       256       103          1000.0          1000.0
         1       257       103          1000.0          1000.0
         1       258       103          1000.0          1000.0
         1       259       103          1000.0          1000.0
         1       260       103          1000.0          1000.0
         1       261       103          1000.0          1000.0
         1       262       103          1000.0          1000.0
         1       263       103          1000.0          1000.0
         1       264       103          1000.0          1000.0
         1       265       103          1000.0          1000.0
         1       266       103          1000.0          1000.0
         1       267       103          1000.0          1000.0
         1       268       103          1000.0          1000.0
         1       269       103          1000.0          1000.0
         1       270       103          1000.0          1000.0
         1       271       103          1000.0          1000.0
         1       272       103          1000.0          1000.0
         1       273       103          1000.0          1000.0
         1       274       103          1000.0          1000.0
         1       275       103          1000.0          1000.0
         1       276       103          1000.0          1000.0
         1       277       103          1000.0          1000.0
         1       278       103          1000.0          1000.0
         1       279       103          1000.0          1000.0
         1       280       103          1000.0          1000.0
         1       281       103          1000.0          1000.0
         1       282       103          1000.0          1000.0
         1       283       103          1000.0          1000.0
         1       284       103          1000.0          1000.0
         1       285       103          1000.0          1000.0
         1       286       103          1000.0          1000.0
         1       287       103          1000.0          1000.0
         1       288       103          1000.0          1000.0
         1       289       103          1000.0          1000.0
         1       290       103          1000.0          1000.0
         1       291       103          1000.0          1000.0
         1       292       103          1000.0          1000.0
         1       293       103          1000.0          1000.0
         1       294       103          1000.0          1000.0
         1       226       104          1000.0          1000.0
         1       227       104          1000.0          1000.0
         1       228       104          1000.0          1000.0
         1       229       104          1000.0          1000.0
         1       230       104          1000.0          1000.0
         1       231       104          1000.0          1000.0
         1       232       104          1000.0          1000.0
         1       233       104          1000.0          1000.0
         1       234       104          1000.0          1000.0
         1       235       104          1000.0          1000.0
         1       236       104          1000.0          1000.0
         1       237       104          1000.0          1000.0
         1       238       104          1000.0          1000.0
         1       239       104          1000.0          1000.0
         1       240       104          1000.0          1000.0
         1       241       104          1000.0          1000.0
         1       242       104          1000.0          1000.0
         1       243       104          1000.0          1000.0
         1       244       104          1000.0          1000.0
         1       245       104          1000.0          1000.0
         1       246       104          1000.0          1000.0
         1       247       104          1000.0          1000.0
         1       248       104          1000.0          1000.0
         1       249       104          1000.0          1000.0
         1       250       104          1000.0          1000.0
         1       251       104          1000.0          1000.0
         1       252       104          1000.0          1000.0
         1       253       104          1000.0          1000.0
         1       254       104          1000.0          1000.0
         1       255       104          1000.0          1000.0
         1       256       104          1000.0          1000.0
         1       257       104          1000.0          1000.0
         1       258       104          1000.0          1000.0
         1       259       104          1000.0          1000.0
         1       260       104          1000.0          1000.0
         1       261       104          1000.0          1000.0
         1       262       104          1000.0          1000.0
         1       263       104          1000.0          1000.0
         1       264       104          1000.0          1000.0
         1       265       104          1000.0          1000.0
         1       266       104          1000.0          1000.0
         1       267       104          1000.0          1000.0
         1       268       104          1000.0          1000.0
         1       269       104          1000.0          1000.0
         1       270       104          1000.0          1000.0
         1       271       104          1000.0          1000.0
         1       272       104          1000.0          1000.0
         1       273       104          1000.0          1000.0
         1       274       104          1000.0          1000.0
         1       275       104          1000.0          1000.0
         1       276       104          1000.0          1000.0
         1       277       104          1000.0          1000.0
         1       278       104          1000.0          1000.0
         1       279       104          1000.0          1000.0
         1       280       104          1000.0          1000.0
         1       281       104          1000.0          1000.0
         1       282       104          1000.0          1000.0
         1       283       104          1000.0          1000.0
         1       284       104          1000.0          1000.0
         1       285       104          1000.0          1000.0
         1       286       104          1000.0          1000.0
         1       287       104          1000.0          1000.0
         1       288       104          1000.0          1000.0
         1       289       104          1000.0          1000.0
         1       290       104          1000.0          1000.0
         1       291       104          1000.0          1000.0
         1       292       104          1000.0          1000.0
         1       293       104          1000.0          1000.0
         1       294       104          1000.0          1000.0
         1       222       105          1000.0          1000.0
         1       223       105          1000.0          1000.0
         1       224       105          1000.0          1000.0
         1       225       105          1000.0          1000.0
         1       226       105          1000.0          1000.0
         1       227       105          1000.0          1000.0
         1       228       105          1000.0          1000.0
         1       229       105          1000.0          1000.0
         1       230       105          1000.0          1000.0
         1       231       105          1000.0          1000.0
         1       232       105          1000.0          1000.0
         1       233       105          1000.0          1000.0
         1       234       105          1000.0          1000.0
         1       235       105          1000.0          1000.0
         1       236       105          1000.0          1000.0
         1       237       105          1000.0          1000.0